examples/feeders/17_SE001_1/009_segmentoRamalBT.dss
New Line.RBT_1701688 phases=2 bus1=BT279212.1.4 bus2=UC1701688.1.4 linecode=50_2 length=0.024 units=km
New Line.RBT_1704548 phases=3 bus1=BT329331.1.2.4 bus2=UC1704548.1.2.4 linecode=83_3 length=0.023 units=km
New Line.RBT_1704939 phases=4 bus1=BT279351.1.2.3.4 bus2=UC1704939.1.2.3.4 linecode=51_4 length=0.001 units=km
New Line.RBT_1705033 phases=4 bus1=BT279331.1.2.3.4 bus2=UC1705033.1.2.3.4 linecode=51_4 length=0.028 units=km
New Line.RBT_1714257 phases=2 bus1=BT784591.3.4 bus2=UC1714257.3.4 linecode=50_2 length=0.004 units=km
New Line.RBT_1716350 phases=4 bus1=BT784571.1.2.3.4 bus2=UC1716350.1.2.3.4 linecode=143_4 length=0.007 units=km
New Line.RBT_1721086 phases=4 bus1=BT279271.1.2.3.4 bus2=UC1721086.1.2.3.4 linecode=51_4 length=0.005 units=km
New Line.RBT_1728596 phases=4 bus1=BT279351.1.2.3.4 bus2=UC1728596.1.2.3.4 linecode=109_4 length=0.02 units=km
New Line.RBT_1729205 phases=4 bus1=BT279351.1.2.3.4 bus2=UC1729205.1.2.3.4 linecode=51_4 length=0.02 units=km
New Line.RBT_1729356 phases=4 bus1=BT279351.1.2.3.4 bus2=UC1729356.1.2.3.4 linecode=51_4 length=0.003 units=km
New Line.RBT_1729798 phases=4 bus1=BT784581.1.2.3.4 bus2=UC1729798.1.2.3.4 linecode=51_4 length=0.022 units=km
New Line.RBT_1730242 phases=2 bus1=BT279261.3.4 bus2=UC1730242.3.4 linecode=50_2 length=0.017 units=km
New Line.RBT_1730451 phases=2 bus1=BT784591.2.4 bus2=UC1730451.2.4 linecode=108_2 length=0.003 units=km
New Line.RBT_1734100 phases=4 bus1=BT279212.1.2.3.4 bus2=UC1734100.1.2.3.4 linecode=51_4 length=0.0153 units=km
New Line.RBT_1739054 phases=4 bus1=BT279291.1.2.3.4 bus2=UC1739054.1.2.3.4 linecode=51_4 length=0.005 units=km
New Line.RBT_1738043 phases=2 bus1=BT297581.3.4 bus2=UC1738043.3.4 linecode=50_2 length=0.025 units=km
New Line.RBT_1736581 phases=2 bus1=BT297641.2.4 bus2=UC1736581.2.4 linecode=105_2 length=0.005 units=km
New Line.RBT_1734371 phases=3 bus1=BT297581.1.2.4 bus2=UC1734371.1.2.4 linecode=83_3 length=0.00956 units=km
New Line.RBT_1736183 phases=2 bus1=BT297631.2.4 bus2=UC1736183.2.4 linecode=147_P_2 length=0.015 units=km
New Line.RBT_1730748 phases=2 bus1=BT297591.1.4 bus2=UC1730748.1.4 linecode=50_2 length=0.002 units=km
New Line.RBT_1730751 phases=2 bus1=BT219601.1.4 bus2=UC1730751.1.4 linecode=50_2 length=0.015 units=km
New Line.RBT_1731331 phases=2 bus1=BT297641.2.4 bus2=UC1731331.2.4 linecode=50_2 length=0.01981 units=km
New Line.RBT_1731654 phases=2 bus1=BT297651.2.4 bus2=UC1731654.2.4 linecode=105_2 length=0.005 units=km
New Line.RBT_1732556 phases=2 bus1=BT297551.2.4 bus2=UC1732556.2.4 linecode=50_2 length=0.0166 units=km
New Line.RBT_1733467 phases=2 bus1=BT297521.2.4 bus2=UC1733467.2.4 linecode=108_2 length=0.01625 units=km
New Line.RBT_1733696 phases=2 bus1=BT219601.3.4 bus2=UC1733696.3.4 linecode=105_2 length=0.022 units=km
New Line.RBT_1733699 phases=2 bus1=BT297551.2.4 bus2=UC1733699.2.4 linecode=50_2 length=0.01042 units=km
New Line.RBT_1729800 phases=2 bus1=BT219581.2.4 bus2=UC1729800.2.4 linecode=108_2 length=0.017 units=km
New Line.RBT_1729833 phases=3 bus1=BT219581.1.2.4 bus2=UC1729833.1.2.4 linecode=83_3 length=0.019 units=km
New Line.RBT_1729931 phases=2 bus1=BT297511.3.4 bus2=UC1729931.3.4 linecode=50_2 length=0.005 units=km
New Line.RBT_1729938 phases=2 bus1=BT219611.1.4 bus2=UC1729938.1.4 linecode=105_2 length=0.022 units=km
New Line.RBT_1729012 phases=2 bus1=BT274511.3.4 bus2=UC1729012.3.4 linecode=50_2 length=0.025 units=km
New Line.RBT_1728314 phases=4 bus1=BT278661.1.2.3.4 bus2=UC1728314.1.2.3.4 linecode=51_4 length=0.007 units=km
New Line.RBT_1727540 phases=2 bus1=BT297631.3.4 bus2=UC1727540.3.4 linecode=108_2 length=0.015 units=km
New Line.RBT_1727796 phases=2 bus1=BT297551.3.4 bus2=UC1727796.3.4 linecode=105_2 length=0.014 units=km
New Line.RBT_1728116 phases=2 bus1=BT219591.1.4 bus2=UC1728116.1.4 linecode=50_2 length=0.012 units=km
New Line.RBT_1728131 phases=2 bus1=BT219611.1.4 bus2=UC1728131.1.4 linecode=108_2 length=0.023 units=km
New Line.RBT_1720852 phases=2 bus1=BT297551.1.4 bus2=UC1720852.1.4 linecode=50_2 length=0.024 units=km
New Line.RBT_1719215 phases=2 bus1=BT297641.2.4 bus2=UC1719215.2.4 linecode=105_2 length=0.018 units=km
New Line.RBT_1720065 phases=2 bus1=BT219611.1.4 bus2=UC1720065.1.4 linecode=50_2 length=0.016 units=km
New Line.RBT_1720066 phases=2 bus1=BT297641.3.4 bus2=UC1720066.3.4 linecode=50_2 length=0.005 units=km
New Line.RBT_1725498 phases=2 bus1=BT297561.2.4 bus2=UC1725498.2.4 linecode=50_2 length=0.008 units=km
New Line.RBT_1726271 phases=2 bus1=BT297641.1.4 bus2=UC1726271.1.4 linecode=105_2 length=0.003 units=km
New Line.RBT_1726584 phases=2 bus1=BT297581.2.4 bus2=UC1726584.2.4 linecode=108_2 length=0.013 units=km
New Line.RBT_1727002 phases=2 bus1=BT297551.1.4 bus2=UC1727002.1.4 linecode=108_2 length=0.002 units=km
New Line.RBT_1707654 phases=2 bus1=BT297551.2.4 bus2=UC1707654.2.4 linecode=108_2 length=0.018 units=km
New Line.RBT_1713660 phases=4 bus1=BT297521.1.2.3.4 bus2=UC1713660.1.2.3.4 linecode=51_4 length=0.003 units=km
New Line.RBT_1713664 phases=3 bus1=BT297541.1.2.4 bus2=UC1713664.1.2.4 linecode=83_3 length=0.016 units=km
New Line.RBT_1705035 phases=2 bus1=BT297551.3.4 bus2=UC1705035.3.4 linecode=108_2 length=0.008 units=km
New Line.RBT_1705008 phases=2 bus1=BT297641.1.4 bus2=UC1705008.1.4 linecode=108_2 length=0.018 units=km
New Line.RBT_1704935 phases=2 bus1=BT297682.1.4 bus2=UC1704935.1.4 linecode=50_2 length=0.003 units=km
New Line.RBT_1704896 phases=4 bus1=BT297521.1.2.3.4 bus2=UC1704896.1.2.3.4 linecode=109_4 length=0.016 units=km
New Line.RBT_1704898 phases=2 bus1=ET17_1690.2.4 bus2=UC1704898.2.4 linecode=50_2 length=0.015 units=km
New Line.RBT_1704899 phases=4 bus1=BT309511.1.2.3.4 bus2=UC1704899.1.2.3.4 linecode=51_4 length=0.03 units=km
New Line.RBT_1704900 phases=2 bus1=BT297541.1.4 bus2=UC1704900.1.4 linecode=50_2 length=0.009 units=km
New Line.RBT_1704787 phases=2 bus1=BT297591.1.4 bus2=UC1704787.1.4 linecode=50_2 length=0.012 units=km
New Line.RBT_1704788 phases=2 bus1=BT297561.3.4 bus2=UC1704788.3.4 linecode=50_2 length=0.02543 units=km
New Line.RBT_1704789 phases=2 bus1=BT297591.2.4 bus2=UC1704789.2.4 linecode=50_2 length=0.015 units=km
New Line.RBT_1704790 phases=2 bus1=BT297561.3.4 bus2=UC1704790.3.4 linecode=50_2 length=0.003 units=km
New Line.RBT_1704791 phases=2 bus1=BT297551.2.4 bus2=UC1704791.2.4 linecode=50_2 length=0.016 units=km
New Line.RBT_1704792 phases=2 bus1=BT297551.2.4 bus2=UC1704792.2.4 linecode=108_2 length=0.009 units=km
New Line.RBT_1704793 phases=2 bus1=BT297671.2.4 bus2=UC1704793.2.4 linecode=50_2 length=0.006 units=km
New Line.RBT_1704886 phases=2 bus1=BT297631.2.4 bus2=UC1704886.2.4 linecode=108_2 length=0.001 units=km
New Line.RBT_1704887 phases=2 bus1=BT297511.1.4 bus2=UC1704887.1.4 linecode=50_2 length=0.005 units=km
New Line.RBT_1704515 phases=2 bus1=ET17_1690.1.4 bus2=UC1704515.1.4 linecode=50_2 length=0.006 units=km
New Line.RBT_1701649 phases=2 bus1=BT297521.1.4 bus2=UC1701649.1.4 linecode=50_2 length=0.017 units=km
New Line.RBT_1703392 phases=2 bus1=BT278651.3.4 bus2=UC1703392.3.4 linecode=50_2 length=0.009 units=km
New Line.RBT_1704624 phases=2 bus1=BT219581.3.4 bus2=UC1704624.3.4 linecode=108_2 length=0.018 units=km
New Line.RBT_1704625 phases=4 bus1=BT219581.1.2.3.4 bus2=UC1704625.1.2.3.4 linecode=51_4 length=0.002 units=km
New Line.RBT_1704626 phases=3 bus1=BT219591.2.3.4 bus2=UC1704626.2.3.4 linecode=110_3 length=0.012 units=km
New Line.RBT_1704627 phases=3 bus1=BT219591.1.2.4 bus2=UC1704627.1.2.4 linecode=83_3 length=0.005 units=km
New Line.RBT_1704628 phases=2 bus1=BT219611.3.4 bus2=UC1704628.3.4 linecode=50_2 length=0.02 units=km
New Line.RBT_1704629 phases=2 bus1=BT219611.3.4 bus2=UC1704629.3.4 linecode=50_2 length=0.019 units=km
New Line.RBT_1704630 phases=2 bus1=BT219611.3.4 bus2=UC1704630.3.4 linecode=50_2 length=0.02 units=km
New Line.RBT_1704631 phases=2 bus1=BT219621.1.4 bus2=UC1704631.1.4 linecode=108_2 length=0.012 units=km
New Line.RBT_1704646 phases=2 bus1=BT292111.2.4 bus2=UC1704646.2.4 linecode=108_2 length=0.03 units=km
New Line.RBT_1704647 phases=2 bus1=BT292111.2.4 bus2=UC1704647.2.4 linecode=50_2 length=0.005 units=km
New Line.RBT_1704648 phases=2 bus1=BT309511.3.4 bus2=UC1704648.3.4 linecode=50_2 length=0.03 units=km
New Line.RBT_1704649 phases=2 bus1=BT309511.2.4 bus2=UC1704649.2.4 linecode=50_2 length=0.03 units=km
New Line.RBT_1704650 phases=3 bus1=BT219621.3.1.4 bus2=UC1704650.3.1.4 linecode=83_3 length=0.009 units=km
New Line.RBT_1704780 phases=2 bus1=BT267821.3.4 bus2=UC1704780.3.4 linecode=50_2 length=0.01 units=km
New Line.RBT_1704781 phases=2 bus1=BT219611.1.4 bus2=UC1704781.1.4 linecode=50_2 length=0.013 units=km
New Line.RBT_1704782 phases=2 bus1=BT219611.1.4 bus2=UC1704782.1.4 linecode=50_2 length=0.005 units=km
New Line.RBT_1704783 phases=2 bus1=BT297581.1.4 bus2=UC1704783.1.4 linecode=50_2 length=0.022 units=km
New Line.RBT_1704784 phases=2 bus1=BT297581.3.4 bus2=UC1704784.3.4 linecode=50_2 length=0.006 units=km
New Line.RBT_1704785 phases=2 bus1=BT297581.2.4 bus2=UC1704785.2.4 linecode=50_2 length=0.015 units=km
New Line.RBT_1723981 phases=4 bus1=BT296041.1.2.3.4 bus2=UC1723981.1.2.3.4 linecode=51_4 length=0.01 units=km
New Line.RBT_1729794 phases=4 bus1=BT296041.1.2.3.4 bus2=UC1729794.1.2.3.4 linecode=51_4 length=0.028 units=km
New Line.RBT_1701683 phases=4 bus1=BT814281.1.2.3.4 bus2=UC1701683.1.2.3.4 linecode=51_4 length=0.012 units=km
New Line.RBT_1701684 phases=4 bus1=BT272161.1.2.3.4 bus2=UC1701684.1.2.3.4 linecode=51_4 length=0.013 units=km
New Line.RBT_1704933 phases=4 bus1=BT350451.1.2.3.4 bus2=UC1704933.1.2.3.4 linecode=51_4 length=0.008 units=km
New Line.RBT_1723594 phases=2 bus1=ET17_1953.1.4 bus2=UC1723594.1.4 linecode=105_2 length=0.008 units=km
New Line.RBT_1719235 phases=2 bus1=BT250861.2.4 bus2=UC1719235.2.4 linecode=50_2 length=0.018 units=km
New Line.RBT_1719251 phases=2 bus1=BT250881.1.4 bus2=UC1719251.1.4 linecode=50_2 length=0.012 units=km
New Line.RBT_1720558 phases=2 bus1=BT218901.1.4 bus2=UC1720558.1.4 linecode=50_2 length=0.023 units=km
New Line.RBT_1724588 phases=2 bus1=BT200961.2.4 bus2=UC1724588.2.4 linecode=50_2 length=0.013 units=km
New Line.RBT_1729054 phases=2 bus1=ET17_2121.1.4 bus2=UC1729054.1.4 linecode=50_2 length=0.01624 units=km
New Line.RBT_1729201 phases=2 bus1=BT218901.1.4 bus2=UC1729201.1.4 linecode=50_2 length=0.017 units=km
New Line.RBT_1727975 phases=2 bus1=BT200961.1.4 bus2=UC1727975.1.4 linecode=50_2 length=0.005 units=km
New Line.RBT_1727697 phases=2 bus1=ET17_2121.2.4 bus2=UC1727697.2.4 linecode=105_2 length=0.005 units=km
New Line.RBT_1713666 phases=2 bus1=BT200971.1.4 bus2=UC1713666.1.4 linecode=50_2 length=0.008 units=km
New Line.RBT_1705098 phases=2 bus1=BT200961.1.4 bus2=UC1705098.1.4 linecode=50_2 length=0.02 units=km
New Line.RBT_1705041 phases=2 bus1=BT200961.3.4 bus2=UC1705041.3.4 linecode=50_2 length=0.002 units=km
New Line.RBT_1705049 phases=2 bus1=BT787631.3.4 bus2=UC1705049.3.4 linecode=50_2 length=0.025 units=km
New Line.RBT_1705075 phases=4 bus1=ET17_2121.1.2.3.4 bus2=UC1705075.1.2.3.4 linecode=51_4 length=0.02 units=km
New Line.RBT_1716253 phases=2 bus1=BT787631.1.4 bus2=UC1716253.1.4 linecode=50_2 length=0.03 units=km
New Line.RBT_1718113 phases=4 bus1=BT218901.1.2.3.4 bus2=UC1718113.1.2.3.4 linecode=109_4 length=0.023 units=km
New Line.RBT_1701694 phases=2 bus1=BT787631.3.4 bus2=UC1701694.3.4 linecode=105_2 length=0.013 units=km
New Line.RBT_1701695 phases=2 bus1=BT787631.2.4 bus2=UC1701695.2.4 linecode=50_2 length=0.004 units=km
New Line.RBT_1704519 phases=4 bus1=BT787631.1.2.3.4 bus2=UC1704519.1.2.3.4 linecode=51_4 length=0.002 units=km
New Line.RBT_1704593 phases=4 bus1=BT218901.1.2.3.4 bus2=UC1704593.1.2.3.4 linecode=51_4 length=0.00915 units=km
New Line.RBT_1730334 phases=2 bus1=BT218901.1.4 bus2=UC1730334.1.4 linecode=50_2 length=0.019 units=km
New Line.RBT_1738040 phases=2 bus1=BT200951.2.4 bus2=UC1738040.2.4 linecode=50_2 length=0.008 units=km
New Line.RBT_1738300 phases=4 bus1=BT272901.1.2.3.4 bus2=UC1738300.1.2.3.4 linecode=123_P_4 length=0.005 units=km
New Line.RBT_1738768 phases=4 bus1=BT272901.1.2.3.4 bus2=UC1738768.1.2.3.4 linecode=51_P_4 length=0.005 units=km
New Line.RBT_1736544 phases=2 bus1=BT272911.2.4 bus2=UC1736544.2.4 linecode=105_2 length=0.021 units=km
New Line.RBT_1736545 phases=2 bus1=BT272911.2.4 bus2=UC1736545.2.4 linecode=105_2 length=0.021 units=km
New Line.RBT_1736546 phases=2 bus1=BT272911.3.4 bus2=UC1736546.3.4 linecode=105_2 length=0.021 units=km
New Line.RBT_1730735 phases=2 bus1=BT269201.3.4 bus2=UC1730735.3.4 linecode=105_2 length=0.005 units=km
New Line.RBT_1730736 phases=2 bus1=BT269201.1.4 bus2=UC1730736.1.4 linecode=50_2 length=0.005 units=km
New Line.RBT_1730201 phases=4 bus1=BT269251.1.2.3.4 bus2=UC1730201.1.2.3.4 linecode=51_4 length=0.02793 units=km
New Line.RBT_1704570 phases=2 bus1=BT363331.2.4 bus2=UC1704570.2.4 linecode=105_2 length=0.021 units=km
New Line.RBT_1704526 phases=2 bus1=BT269201.2.4 bus2=UC1704526.2.4 linecode=105_2 length=0.005 units=km
New Line.RBT_1703383 phases=2 bus1=BT272911.1.4 bus2=UC1703383.1.4 linecode=105_2 length=0.021 units=km
New Line.RBT_1703377 phases=4 bus1=BT269201.1.2.3.4 bus2=UC1703377.1.2.3.4 linecode=51_4 length=0.007 units=km
New Line.RBT_1703378 phases=2 bus1=BT269211.1.4 bus2=UC1703378.1.4 linecode=50_2 length=0.01 units=km
New Line.RBT_1703379 phases=3 bus1=BT269211.3.1.4 bus2=UC1703379.3.1.4 linecode=83_3 length=0.014 units=km
New Line.RBT_1703380 phases=2 bus1=BT269221.2.4 bus2=UC1703380.2.4 linecode=50_2 length=0.00193 units=km
New Line.RBT_1703387 phases=4 bus1=BT269251.1.2.3.4 bus2=UC1703387.1.2.3.4 linecode=51_4 length=0.008 units=km
New Line.RBT_1703388 phases=4 bus1=BT278551.1.2.3.4 bus2=UC1703388.1.2.3.4 linecode=109_4 length=0.019 units=km
New Line.RBT_1703389 phases=2 bus1=BT278551.1.4 bus2=UC1703389.1.4 linecode=105_2 length=0.02 units=km
New Line.RBT_1703390 phases=4 bus1=BT278551.1.2.3.4 bus2=UC1703390.1.2.3.4 linecode=51_4 length=0.002 units=km
New Line.RBT_1703391 phases=3 bus1=BT278551.1.2.4 bus2=UC1703391.1.2.4 linecode=83_3 length=0.001 units=km
New Line.RBT_1705080 phases=4 bus1=BT278551.1.2.3.4 bus2=UC1705080.1.2.3.4 linecode=109_4 length=0.019 units=km
New Line.RBT_1704865 phases=4 bus1=BT269191.1.2.3.4 bus2=UC1704865.1.2.3.4 linecode=51_4 length=0.002 units=km
New Line.RBT_1727536 phases=2 bus1=BT278551.2.4 bus2=UC1727536.2.4 linecode=50_2 length=0.002 units=km
New Line.RBT_1728114 phases=2 bus1=ET17_2175.1.4 bus2=UC1728114.1.4 linecode=50_2 length=0.01251 units=km
New Line.RBT_1729238 phases=4 bus1=BT269251.1.2.3.4 bus2=UC1729238.1.2.3.4 linecode=51_4 length=0.028 units=km
New Line.RBT_1724643 phases=2 bus1=BT278551.2.4 bus2=UC1724643.2.4 linecode=50_2 length=0.017 units=km
New Line.RBT_1724810 phases=4 bus1=BT278551.1.2.3.4 bus2=UC1724810.1.2.3.4 linecode=51_4 length=0.0185 units=km
New Line.RBT_1723975 phases=2 bus1=BT272911.3.4 bus2=UC1723975.3.4 linecode=50_2 length=0.016 units=km
New Line.RBT_1720072 phases=4 bus1=BT272901.1.2.3.4 bus2=UC1720072.1.2.3.4 linecode=51_4 length=0.023 units=km
New Line.RBT_1719246 phases=2 bus1=BT278541.3.4 bus2=UC1719246.3.4 linecode=108_2 length=0.012 units=km
New Line.RBT_1721216 phases=4 bus1=ET17_2175.1.2.3.4 bus2=UC1721216.1.2.3.4 linecode=51_4 length=0.014 units=km
New Line.RBT_1722573 phases=4 bus1=BT272901.1.2.3.4 bus2=UC1722573.1.2.3.4 linecode=109_4 length=0.025 units=km
New Line.RBT_1722662 phases=2 bus1=BT269201.2.4 bus2=UC1722662.2.4 linecode=108_2 length=0.016 units=km
New Line.RBT_1718129 phases=4 bus1=ET17_2222.1.2.3.4 bus2=UC1718129.1.2.3.4 linecode=51_4 length=0.01109 units=km
New Line.RBT_1704863 phases=2 bus1=BT269243.1.4 bus2=UC1704863.1.4 linecode=50_2 length=0.003 units=km
New Line.RBT_1703381 phases=3 bus1=ET17_2370.1.2.4 bus2=UC1703381.1.2.4 linecode=83_3 length=0.00756 units=km
New Line.RBT_1703382 phases=4 bus1=ET17_2370.1.2.3.4 bus2=UC1703382.1.2.3.4 linecode=51_4 length=0.03 units=km
New Line.RBT_1726134 phases=2 bus1=BT752743.1.4 bus2=UC1726134.1.4 linecode=50_2 length=0.003 units=km
New Line.RBT_1727023 phases=2 bus1=BT269243.1.4 bus2=UC1727023.1.4 linecode=50_2 length=0.001 units=km
New Line.RBT_1735237 phases=4 bus1=BT752743.1.2.3.4 bus2=UC1735237.1.2.3.4 linecode=109_4 length=0.005 units=km
New Line.RBT_1736802 phases=2 bus1=BT752743.2.4 bus2=UC1736802.2.4 linecode=105_2 length=0.00868 units=km
New Line.RBT_1739252 phases=2 bus1=BT752743.1.4 bus2=UC1739252.1.4 linecode=105_2 length=0.02123 units=km
New Line.RBT_1719294 phases=4 bus1=ET17_2390.1.2.3.4 bus2=UC1719294.1.2.3.4 linecode=51_4 length=0.01438 units=km
New Line.RBT_1704739 phases=4 bus1=ET17_2583.1.2.3.4 bus2=UC1704739.1.2.3.4 linecode=51_4 length=0.01736 units=km
New Line.RBT_1704599 phases=2 bus1=BT218851.1.4 bus2=UC1704599.1.4 linecode=108_2 length=0.02 units=km
New Line.RBT_1704600 phases=3 bus1=BT218841.1.2.4 bus2=UC1704600.1.2.4 linecode=83_3 length=0.015 units=km
New Line.RBT_1704644 phases=2 bus1=BT218861.2.4 bus2=UC1704644.2.4 linecode=108_2 length=0.005 units=km
New Line.RBT_1701629 phases=3 bus1=BT215451.1.2.4 bus2=UC1701629.1.2.4 linecode=83_3 length=0.002 units=km
New Line.RBT_1704503 phases=2 bus1=BT215451.2.4 bus2=UC1704503.2.4 linecode=108_2 length=0.023 units=km
New Line.RBT_1704505 phases=2 bus1=BT298601.2.4 bus2=UC1704505.2.4 linecode=108_2 length=0.017 units=km
New Line.RBT_1704506 phases=3 bus1=BT218841.3.1.4 bus2=UC1704506.3.1.4 linecode=83_3 length=0.005 units=km
New Line.RBT_1704801 phases=4 bus1=BT298591.1.2.3.4 bus2=UC1704801.1.2.3.4 linecode=51_4 length=0.029 units=km
New Line.RBT_1719214 phases=2 bus1=BT298601.2.4 bus2=UC1719214.2.4 linecode=50_2 length=0.024 units=km
New Line.RBT_1716354 phases=4 bus1=BT218851.1.2.3.4 bus2=UC1716354.1.2.3.4 linecode=51_4 length=0.013 units=km
New Line.RBT_1705118 phases=2 bus1=BT218841.2.4 bus2=UC1705118.2.4 linecode=50_2 length=0.01 units=km
New Line.RBT_1720552 phases=2 bus1=ET17_2649.2.4 bus2=UC1720552.2.4 linecode=50_2 length=0.01 units=km
New Line.RBT_1721094 phases=2 bus1=BT218861.2.4 bus2=UC1721094.2.4 linecode=50_2 length=0.007 units=km
New Line.RBT_1721280 phases=2 bus1=ET17_2649.1.4 bus2=UC1721280.1.4 linecode=107_2 length=0.02102 units=km
New Line.RBT_1721286 phases=2 bus1=BT215451.2.4 bus2=UC1721286.2.4 linecode=105_2 length=0.01 units=km
New Line.RBT_1725820 phases=4 bus1=BT218861.1.2.3.4 bus2=UC1725820.1.2.3.4 linecode=51_4 length=0.006 units=km
New Line.RBT_1727695 phases=2 bus1=BT298591.3.4 bus2=UC1727695.3.4 linecode=50_2 length=0.026 units=km
New Line.RBT_1729355 phases=2 bus1=BT787901.1.4 bus2=UC1729355.1.4 linecode=105_2 length=0.008 units=km
New Line.RBT_1728305 phases=2 bus1=BT215451.3.4 bus2=UC1728305.3.4 linecode=50_2 length=0.017 units=km
New Line.RBT_1737087 phases=2 bus1=BT787901.2.4 bus2=UC1737087.2.4 linecode=105_2 length=0.005 units=km
New Line.RBT_1737412 phases=2 bus1=BT215451.1.4 bus2=UC1737412.1.4 linecode=105_2 length=0.022 units=km
New Line.RBT_1738844 phases=4 bus1=BT215451.1.2.3.4 bus2=UC1738844.1.2.3.4 linecode=51_4 length=0.024 units=km
New Line.RBT_1739057 phases=4 bus1=BT215451.1.2.3.4 bus2=UC1739057.1.2.3.4 linecode=51_P_4 length=0.017 units=km
New Line.RBT_1738036 phases=2 bus1=BT298601.3.4 bus2=UC1738036.3.4 linecode=50_2 length=0.01 units=km
New Line.RBT_1736500 phases=4 bus1=ET17_2649.1.2.3.4 bus2=UC1736500.1.2.3.4 linecode=51_P_4 length=0.02019 units=km
New Line.RBT_1733197 phases=2 bus1=BT298591.1.4 bus2=UC1733197.1.4 linecode=50_2 length=0.02997 units=km
New Line.RBT_1732552 phases=2 bus1=BT665181.2.4 bus2=UC1732552.2.4 linecode=50_2 length=0.0115 units=km
New Line.RBT_1731794 phases=2 bus1=BT665181.2.4 bus2=UC1731794.2.4 linecode=50_2 length=0.00592 units=km
New Line.RBT_1735305 phases=2 bus1=BT643331.1.4 bus2=UC1735305.1.4 linecode=108_2 length=0.015 units=km
New Line.RBT_1735658 phases=4 bus1=BT255551.1.2.3.4 bus2=UC1735658.1.2.3.4 linecode=109_4 length=0.015 units=km
New Line.RBT_1734218 phases=2 bus1=BT255531.3.4 bus2=UC1734218.3.4 linecode=105_2 length=0.017 units=km
New Line.RBT_1734770 phases=4 bus1=BT643331.1.2.3.4 bus2=UC1734770.1.2.3.4 linecode=51_4 length=0.014 units=km
New Line.RBT_1734904 phases=2 bus1=BT665181.1.4 bus2=UC1734904.1.4 linecode=50_2 length=0.015 units=km
New Line.RBT_1738521 phases=2 bus1=BT255511.2.4 bus2=UC1738521.2.4 linecode=105_2 length=0.005 units=km
New Line.RBT_1737884 phases=4 bus1=BT267441.1.2.3.4 bus2=UC1737884.1.2.3.4 linecode=51_4 length=0.015 units=km
New Line.RBT_1789999 phases=4 bus1=BT269192.1.2.3.4 bus2=UC1789999.1.2.3.4 linecode=51_4 length=0.00447 units=km
New Line.RBT_1728804 phases=2 bus1=BT255571.3.4 bus2=UC1728804.3.4 linecode=50_2 length=0.006 units=km
New Line.RBT_1728130 phases=2 bus1=BT255571.2.4 bus2=UC1728130.2.4 linecode=50_2 length=0.01024 units=km
New Line.RBT_1729435 phases=2 bus1=BT360481.1.4 bus2=UC1729435.1.4 linecode=108_2 length=0.014 units=km
New Line.RBT_1729309 phases=2 bus1=BT255551.1.4 bus2=UC1729309.1.4 linecode=50_2 length=0.018 units=km
New Line.RBT_1728132 phases=3 bus1=BT273012.1.2.4 bus2=UC1728132.1.2.4 linecode=83_3 length=0.01023 units=km
New Line.RBT_1728111 phases=2 bus1=BT255521.1.4 bus2=UC1728111.1.4 linecode=50_2 length=0.011 units=km
New Line.RBT_1726803 phases=2 bus1=BT255531.3.4 bus2=UC1726803.3.4 linecode=108_2 length=0.011 units=km
...
